Version 4.1
SHEET 1 2972 924
WIRE 512 -800 464 -800
WIRE 1120 -800 512 -800
WIRE 1168 -800 1120 -800
WIRE 1344 -800 1248 -800
WIRE 1648 -800 1344 -800
WIRE 464 -672 464 -800
WIRE 1648 -656 1648 -800
WIRE 1568 -640 1552 -640
WIRE 1600 -640 1568 -640
WIRE 1120 -608 1120 -800
WIRE 1248 -608 1248 -656
WIRE 1600 -592 1552 -592
WIRE 928 -560 912 -560
WIRE 992 -560 928 -560
WIRE 1440 -560 1376 -560
WIRE 1472 -560 1440 -560
WIRE 176 -544 176 -656
WIRE 464 -528 464 -592
WIRE 1648 -496 1648 -576
WIRE 1920 -496 1648 -496
WIRE 2080 -496 2000 -496
WIRE 2240 -496 2160 -496
WIRE 2288 -496 2240 -496
WIRE 2528 -496 2288 -496
WIRE 928 -480 912 -480
WIRE 992 -480 928 -480
WIRE 1552 -480 1552 -592
WIRE 1552 -480 1376 -480
WIRE 2240 -480 2240 -496
WIRE 2528 -432 2528 -496
WIRE 176 -416 176 -464
WIRE 464 -416 464 -464
WIRE 992 -400 832 -400
WIRE 1536 -400 1376 -400
WIRE 1648 -400 1648 -496
WIRE 1648 -400 1536 -400
WIRE 832 -368 832 -400
WIRE 1600 -368 1536 -368
WIRE 1648 -368 1648 -400
WIRE 2240 -368 2240 -400
WIRE 1536 -352 1536 -368
WIRE 1600 -352 1600 -368
WIRE 928 -320 912 -320
WIRE 992 -320 928 -320
WIRE 1472 -320 1376 -320
WIRE 1472 -304 1472 -320
WIRE 1600 -304 1472 -304
WIRE 2240 -272 2240 -304
WIRE 2528 -272 2528 -352
WIRE 928 -240 912 -240
WIRE 992 -240 928 -240
WIRE 1648 -240 1648 -288
WIRE 1648 -240 1376 -240
WIRE 1648 -192 1648 -240
WIRE 928 -160 912 -160
WIRE 992 -160 928 -160
WIRE 1440 -160 1376 -160
WIRE 1472 -160 1440 -160
WIRE 1184 -80 1184 -112
WIRE 1344 64 1344 48
WIRE 1344 96 1344 64
WIRE 128 176 128 160
WIRE 1744 176 1680 176
WIRE 1904 176 1824 176
WIRE 464 192 464 160
WIRE 624 208 608 208
WIRE 656 208 624 208
WIRE 784 208 784 192
WIRE 784 208 720 208
WIRE 1344 208 1344 176
WIRE 1344 208 1264 208
WIRE 1392 208 1344 208
WIRE 784 224 784 208
WIRE 1264 240 1264 208
WIRE 1392 240 1392 208
WIRE 1680 240 1680 176
WIRE 128 304 128 256
WIRE 464 304 464 256
WIRE 784 320 784 288
WIRE 1264 352 1264 304
WIRE 1392 352 1392 304
WIRE 1680 352 1680 320
FLAG 176 -416 0
FLAG 464 -416 0
FLAG 928 -160 SENSE-
FLAG 784 320 SW
FLAG 1536 -400 SW
FLAG 2288 -496 VOUT
FLAG 2240 -272 0
FLAG 2528 -272 0
FLAG 1680 352 0
FLAG 1264 352 0
FLAG 1392 352 0
FLAG 1184 -80 0
FLAG 464 304 0
FLAG 1648 -192 0
FLAG 1248 -656 Vcc
FLAG 928 -320 Vfb
FLAG 1904 176 VOUT
FLAG 1680 176 Vfb
FLAG 928 -240 Vc
FLAG 1344 64 Vc
FLAG 464 160 Vcss
FLAG 928 -480 Vcss
FLAG 784 192 Vboost
FLAG 1440 -560 Vboost
FLAG 928 -560 VIN
FLAG 1440 -160 VIN
FLAG 832 -368 0
FLAG 176 -656 VIN
FLAG 1344 -800 SENSE-
FLAG 512 -800 VIN
FLAG 128 304 0
FLAG 128 160 Vcc
FLAG 624 208 Vcc
FLAG 1536 -352 0
FLAG 1568 -640 SW
SYMBOL voltage 176 -560 R0
WINDOW 123 0 0 Left 0
WINDOW 39 0 0 Left 0
SYMATTR InstName Vin
SYMATTR Value 12
SYMBOL PowerProducts\\LT3800 1184 -368 R0
SYMATTR InstName U1
SYMBOL cap 448 -528 R0
SYMATTR InstName Cin
SYMATTR Value 22µ
SYMBOL res 448 -688 R0
SYMATTR InstName Cin_sr
SYMATTR Value 8m
SYMBOL res 1264 -816 R90
WINDOW 0 0 56 VBottom 2
WINDOW 3 32 56 VTop 2
SYMATTR InstName Rsense
SYMATTR Value 20m
SYMBOL cap 768 224 R0
SYMATTR InstName Cboost
SYMATTR Value 100n
SYMBOL ind 2016 -512 R90
WINDOW 0 5 56 VBottom 2
WINDOW 3 32 56 VTop 2
SYMATTR InstName L1
SYMATTR Value 22µ
SYMATTR SpiceLine Rser=0
SYMBOL res 2176 -512 R90
WINDOW 0 0 56 VBottom 2
WINDOW 3 32 56 VTop 2
SYMATTR InstName L1_SR
SYMATTR Value 43m
SYMBOL cap 2224 -368 R0
SYMATTR InstName Cout
SYMATTR Value 100µ
SYMBOL res 2224 -496 R0
SYMATTR InstName Cout_sr
SYMATTR Value 5m
SYMBOL res 2512 -448 R0
SYMATTR InstName Rload
SYMATTR Value {Rload_val}
SYMBOL res 1664 224 R0
SYMATTR InstName Rbot
SYMATTR Value 100k
SYMBOL res 1328 80 R0
SYMATTR InstName Rc
SYMATTR Value 100k
SYMBOL cap 1248 240 R0
SYMATTR InstName Cc
SYMATTR Value 1n
SYMBOL cap 1376 240 R0
SYMATTR InstName Cp
SYMATTR Value 47p
SYMBOL cap 448 192 R0
SYMATTR InstName Css
SYMATTR Value 100n
SYMBOL res 1840 160 R90
WINDOW 0 0 56 VBottom 2
WINDOW 3 32 56 VTop 2
SYMATTR InstName Rtop
SYMATTR Value 175k
SYMBOL voltage 128 160 R0
WINDOW 123 0 0 Left 0
WINDOW 39 0 0 Left 0
SYMATTR InstName Vvcc
SYMATTR Value 10
SYMBOL diode 656 224 R270
WINDOW 0 32 32 VTop 2
WINDOW 3 0 32 VBottom 2
SYMATTR InstName D1
SYMATTR Value D_ideal
SYMBOL sw 1648 -672 R0
SYMATTR InstName S1
SYMATTR Value SW_ideal
SYMBOL sw 1648 -384 R0
SYMATTR InstName S2
SYMATTR Value SW_ideal
TEXT 16 576 Left 2 !.lib CSD17556Q5B.lib\n.model D_ideal D(Ron=0.01 Roff=1G Vfwd=0.5)\n.model SW_ideal SW(Ron=0.006 Roff=1G Vt=2 Vh=1)\n.step param Rload_val list 33 6.6 3.3 2.2 1.65\n.meas tran Pout AVG V(VOUT)*I(Rload) FROM 1m TO 2m\n.meas tran Pin AVG V(VIN)*(-I(Vin))+V(Vcc)*(-I(Vvcc)) FROM 1m TO 2m\n.meas tran Eff PARAM Pout/Pin*100\n.tran 0 2m 0 10n
TEXT 1672 0 Left 3 ;Feedback network
TEXT 1192 0 Left 3 ;Compensation network
TEXT 1992 312 Left 3 ;Project : LT3800 Buck - 12V -> 3.3V/2A\nAuthor  : Guillaume Thenaisie\nDate     : 2026 03 15\nRev      : 1.0
TEXT 456 0 Left 3 ;Housekeeping / bypass caps
TEXT 56 -56 Left 2 ;* VCC internally \nregulated by LT3800 \nmodelled as ideal \n10V source \nin simulation
TEXT 888 144 Left 2 ;* Bootstrap diode\ninternal to LT3800 \nin real hardware\n \n* Modelled as \nideal diode due to\nsubcircuit limitation
RECTANGLE Normal 2640 480 -16 -928 2
RECTANGLE Normal 1952 256 2640 480 2
